
This summary file was generated by TurbSim on 03-Aug-2019 at 19:55:02.


ERROR:  ReadInputFile:Invalid character input for file "uref_7_single_data/sim_0000/" occurred while trying to read File Heading Line 1.
ReadInputFile:Invalid character input for file "uref_7_single_data/sim_0000/" occurred while trying to read File Heading Line 2.
ReadInputFile:Invalid character input for file "uref_7_single_data/sim_0000/" occurred while trying to read Runtime Options Heading.
ReadInputFile:Invalid logical input for file "uref_7_single_data/sim_0000/" occurred while trying to read Echo.

ABORTING PROGRAM.
