
This summary file was generated by TurbSim on 03-Aug-2019 at 19:57:43.


Runtime Options:

**********  Random seed #1
    RANLUX  Type of random number generator
         F  Output binary HH turbulence parameters?
         F  Output formatted turbulence parameters?
         F  Output AeroDyn HH files?
         T  Output AeroDyn FF files?
         F  Output BLADED FF files?
         T  Output tower data?
         F  Output formatted FF files?
         F  Output coherent turbulence time step file?
         T  Clockwise rotation when looking downwind?
 0 -  NONE  IEC turbulence models scaled to exact specified standard deviation


Turbine/Model Specifications:

        31  Vertical grid-point matrix dimension
        31  Horizontal grid-point matrix dimension
     0.050  Time step [seconds]
   720.000  Analysis time [seconds]
   600.000  Usable output time [seconds]
    90.000  Hub height [m]
   145.000  Grid height [m]
   145.000  Grid width [m]
     0.000  Vertical flow angle [degrees]
     0.000  Horizontal flow angle [degrees]


Meteorological Boundary Conditions:

    IECKAI  IEC Kaimal spectral model
         1  IEC standard: IEC 61400-1 Ed. 3: 2005
         A  IEC turbulence characteristic
       NTM  IEC Normal Turbulence Model
       N/A  IEC Extreme Turbulence Model (ETM) "c" parameter [m/s]
       PL   Wind profile type
    90.000  Reference height [m]
     7.000  Reference wind speed [m/s]
       N/A  Jet height [m]
     0.200  Power law exponent
     0.030  Surface roughness length [m]


Non-IEC Meteorological Boundary Conditions:

       N/A  Site latitude [degrees]
       N/A  Gradient Richardson number
       N/A  Friction or shear velocity [m/s]
       N/A  Mixing layer depth [m]
       N/A  Mean hub u'w' Reynolds stress
       N/A  Mean hub u'v' Reynolds stress
       N/A  Mean hub v'w' Reynolds stress


Spatial Coherence Models:

       IEC  u-component coherence model
      NONE  v-component coherence model
      NONE  w-component coherence model
(   12.000, 0.353E-03)  u-component coherence parameters
                   N/A  v-component coherence parameters
                   N/A  w-component coherence parameters
       N/A  Coherence exponent


You have requested that the following file(s) be generated:

   uref_7_single_data/sim_0000/90m_12mps_twr.bts (AeroDyn/TurbSim full-field wind file)


Turbulence Simulation Scaling Parameter Summary:

   Turbulence model used                            =  IEC Kaimal
   Turbulence characteristic                        =  A
   IEC turbulence type                              =  Normal Turbulence Model
   IEC standard                                     =  IEC 61400-1 Ed. 3: 2005
   Mean wind speed at hub height                    =    7.000 m/s
   Expected value of turbulence intensity at 15 m/s =   16.000%
   Characteristic value of standard deviation       =    1.736 m/s
   Turbulence scale                                 =   42.000 m
   u-component integral scale                       =  340.200 m
   Coherency scale                                  =  340.200 m
   Characteristic value of hub turbulence intensity =   24.800%
   Gradient Richardson number                       =    0.000

   Wind profile type                                =  Power law
   Power law exponent                               =    0.200
   Mean shear across rotor disk                     =    0.020 (m/s)/m
   Assumed rotor diameter                           =  145.000 m
   Surface roughness length                         =    0.030 m

   Nyquist frequency of turbulent wind field        =   10.000 Hz

   Number of time steps in the FFT                  =    14400
   Number of time steps output                      =    12415
   Number of points simulated                       =      964


Mean Flow Angles:

   Vertical   =   0.0 degrees
   Horizontal =   0.0 degrees

Mean Wind Speed Profile:

   Height    Wind Speed   Horizontal Angle  Vertical Angle  U-comp (X)   V-comp (Y)   W-comp (Z)
     (m)        (m/s)         (degrees)       (degrees)       (m/s)        (m/s)        (m/s)   
   ------    ----------   ----------------  --------------  ----------   ----------   ----------
    162.5        7.88            0.00            0.00          7.88         0.00         0.00
    157.7        7.83            0.00            0.00          7.83         0.00         0.00
    152.8        7.78            0.00            0.00          7.78         0.00         0.00
    148.0        7.73            0.00            0.00          7.73         0.00         0.00
    143.2        7.68            0.00            0.00          7.68         0.00         0.00
    138.3        7.63            0.00            0.00          7.63         0.00         0.00
    133.5        7.57            0.00            0.00          7.57         0.00         0.00
    128.7        7.52            0.00            0.00          7.52         0.00         0.00
    123.8        7.46            0.00            0.00          7.46         0.00         0.00
    119.0        7.40            0.00            0.00          7.40         0.00         0.00
    114.2        7.34            0.00            0.00          7.34         0.00         0.00
    109.3        7.28            0.00            0.00          7.28         0.00         0.00
    104.5        7.21            0.00            0.00          7.21         0.00         0.00
     99.7        7.14            0.00            0.00          7.14         0.00         0.00
     94.8        7.07            0.00            0.00          7.07         0.00         0.00
     90.0        7.00            0.00            0.00          7.00         0.00         0.00
     85.2        6.92            0.00            0.00          6.92         0.00         0.00
     80.3        6.84            0.00            0.00          6.84         0.00         0.00
     75.5        6.76            0.00            0.00          6.76         0.00         0.00
     70.7        6.67            0.00            0.00          6.67         0.00         0.00
     65.8        6.58            0.00            0.00          6.58         0.00         0.00
     61.0        6.48            0.00            0.00          6.48         0.00         0.00
     56.2        6.37            0.00            0.00          6.37         0.00         0.00
     51.3        6.26            0.00            0.00          6.26         0.00         0.00
     46.5        6.13            0.00            0.00          6.13         0.00         0.00
     41.7        6.00            0.00            0.00          6.00         0.00         0.00
     36.8        5.85            0.00            0.00          5.85         0.00         0.00
     32.0        5.69            0.00            0.00          5.69         0.00         0.00
     27.2        5.51            0.00            0.00          5.51         0.00         0.00
     22.3        5.30            0.00            0.00          5.30         0.00         0.00
     17.5        5.04            0.00            0.00          5.04         0.00         0.00
     12.7        4.73            0.00            0.00          4.73         0.00         0.00
      7.8        4.30            0.00            0.00          4.30         0.00         0.00
      3.0        3.55            0.00            0.00          3.55         0.00         0.00


Harvested Random Seeds after Generation of the Random Numbers:

    193474800 K 1
            0 K 2


Hub-Height Simulated Turbulence Statistical Summary:

   Type of Wind        Min (m/s)   Mean (m/s)    Max (m/s)  Sigma (m/s)       TI (%)
   ----------------    ---------   ----------    ---------  -----------       ------
   Longitudinal (u)         2.44         7.00        12.67        1.877       26.817
   Lateral (v)             -3.50         0.00         5.07        1.351       19.302
   Vertical (w)            -2.81        -0.00         3.79        0.852       12.169
   U component              2.44         7.00        12.67        1.877       26.817
   V component             -3.50         0.00         5.07        1.351       19.302
   W component             -2.81        -0.00         3.79        0.852       12.169
   Horizontal (U&V)         2.74         7.13        12.71        1.877       26.331
   Total                    2.78         7.18        12.72        1.862       25.918

                       Min Reynolds     Mean Reynolds    Max Reynolds    Correlation
   Product             Stress (m/s)^2   Stress (m/s)^2   Stress (m/s)^2  Coefficient
   ----------------    --------------   --------------   --------------  -----------
   u'w'                    -11.109             0.043             7.780         0.027
   u'v'                    -10.716             0.627            14.379         0.247
   v'w'                     -8.200             0.044            10.515         0.038


   Friction Velocity (Ustar)  =      0.208 m/s
   Maximum Instantaneous TKE  =     16.750 (m/s)^2
   Maximum Instantaneous CTKE =      8.802 (m/s)^2


Grid Point Variance Summary:

   Y-coord  -72.50  -67.67  -62.83  -58.00  -53.17  -48.33  -43.50  -38.67  -33.83  -29.00  -24.17  -19.33  -14.50   -9.67   -4.83    0.00    4.83    9.67   14.50   19.33   24.17   29.00   33.83   38.67   43.50   48.33   53.17   58.00   62.83   67.67   72.50

   Height   Standard deviation at grid points for the u component:
   162.50    1.630   1.772   1.818   1.942   1.926   1.945   1.962   1.988   1.954   1.978   1.929   2.076   2.166   2.273   2.364   2.222   2.293   2.248   2.262   2.126   2.109   2.017   2.096   2.134   2.102   2.091   2.085   2.148   2.130   2.014   2.041
   157.67    1.563   1.818   1.819   1.856   1.810   1.740   1.821   1.850   1.994   1.904   1.917   2.082   2.082   2.289   2.310   2.308   2.244   2.085   2.167   2.076   1.997   2.039   1.995   2.199   2.098   2.097   2.173   2.085   2.108   2.122   2.144
   152.83    1.622   1.811   1.767   1.758   1.773   1.744   1.876   1.879   1.952   1.875   2.059   2.015   2.006   2.180   2.247   2.294   2.111   2.111   2.083   2.114   1.997   1.935   2.047   2.042   2.042   2.136   2.092   2.163   2.073   2.007   1.951
   148.00    1.607   1.764   1.757   1.774   1.779   1.807   1.798   1.934   1.957   2.030   2.021   2.075   2.132   2.101   2.193   2.223   2.200   2.121   2.146   2.012   2.005   1.946   1.953   2.032   2.169   2.221   2.137   2.178   2.116   1.964   1.937
   143.17    1.710   1.828   1.786   1.784   1.832   1.824   1.882   1.953   1.982   2.036   2.062   2.095   2.063   2.175   2.181   2.135   2.183   2.102   2.180   2.161   1.975   2.037   1.986   1.972   2.106   2.225   2.290   2.270   2.122   2.000   1.929
   138.33    1.724   1.838   1.944   1.783   1.779   1.711   1.808   1.932   1.944   2.028   2.123   2.030   2.049   2.074   2.126   2.001   2.157   2.148   2.157   2.167   1.992   1.969   2.059   1.991   2.079   2.068   2.108   2.201   2.088   2.095   2.030
   133.50    1.758   1.800   1.763   1.727   1.801   1.803   1.842   1.904   1.944   1.932   1.908   2.017   1.943   1.953   2.018   2.111   2.109   2.127   2.119   2.026   2.022   2.048   2.008   1.850   2.026   2.015   2.111   2.019   1.937   1.938   2.022
   128.67    1.786   1.758   1.721   1.733   1.830   1.791   1.994   2.061   2.019   2.065   1.949   2.060   1.972   1.964   2.089   2.076   2.128   1.984   2.019   2.053   1.981   2.000   1.957   1.886   1.933   1.995   2.013   2.001   1.953   1.869   1.853
   123.83    1.824   1.650   1.675   1.787   1.863   1.891   2.120   2.124   2.136   2.111   1.985   2.114   2.184   2.127   2.026   2.087   2.118   2.063   2.035   1.963   1.972   1.901   1.791   1.810   1.749   1.795   1.999   1.885   1.858   1.807   1.821
   119.00    1.694   1.574   1.592   1.679   1.737   1.759   1.966   2.060   2.071   2.169   2.042   2.184   2.241   2.120   2.173   2.093   2.050   2.006   1.956   1.873   1.942   1.885   1.694   1.726   1.673   1.765   1.868   1.880   1.903   1.884   1.926
   114.17    1.713   1.567   1.529   1.643   1.628   1.711   1.871   1.979   2.120   2.193   2.120   2.138   2.171   2.150   2.094   2.098   1.951   1.933   1.969   1.786   1.886   1.858   1.655   1.649   1.591   1.692   1.821   1.813   1.951   2.027   1.983
   109.33    1.791   1.631   1.600   1.724   1.701   1.686   1.830   1.919   1.955   1.985   2.069   1.937   1.979   2.040   2.016   2.010   1.904   2.013   1.893   1.823   1.853   1.810   1.646   1.599   1.501   1.623   1.670   1.808   1.910   2.028   2.118
   104.50    1.749   1.751   1.728   1.624   1.729   1.675   1.877   1.924   1.920   2.003   1.998   2.059   1.915   2.028   2.105   1.898   1.848   1.940   1.812   1.844   1.759   1.680   1.694   1.626   1.634   1.694   1.861   1.854   1.985   2.007   2.089
    99.67    1.714   1.771   1.798   1.675   1.814   1.716   1.774   1.880   1.985   2.027   1.903   2.079   1.977   1.998   1.935   1.904   1.889   1.815   1.778   1.870   1.725   1.693   1.650   1.639   1.710   1.720   1.881   1.944   1.992   1.984   2.098
    94.83    1.656   1.729   1.767   1.716   1.841   1.790   1.819   1.859   1.959   1.905   1.963   1.959   1.942   2.004   1.860   1.839   1.861   1.828   1.838   1.844   1.655   1.711   1.709   1.661   1.711   1.649   1.834   1.889   1.952   2.058   2.015
    90.00    1.732   1.791   1.741   1.684   1.766   1.761   1.785   1.810   1.949   1.959   1.874   1.926   1.908   1.826   1.822   1.877   1.906   1.795   1.794   1.756   1.673   1.697   1.630   1.722   1.735   1.704   1.840   1.855   1.954   2.095   2.054
    85.17    1.647   1.599   1.609   1.712   1.856   1.813   1.850   1.815   1.831   1.834   1.859   1.864   1.715   1.812   1.728   1.786   1.864   1.762   1.679   1.628   1.738   1.655   1.677   1.758   1.729   1.702   1.829   1.910   1.977   2.070   2.053
    80.33    1.622   1.718   1.735   1.878   1.914   2.002   2.002   1.835   1.826   1.843   1.830   1.789   1.768   1.752   1.648   1.752   1.810   1.695   1.627   1.615   1.653   1.601   1.585   1.641   1.631   1.722   1.797   1.850   1.901   1.973   2.020
    75.50    1.736   1.692   1.898   1.893   1.974   2.029   1.943   1.883   1.783   1.798   1.779   1.844   1.747   1.746   1.746   1.651   1.735   1.767   1.700   1.600   1.629   1.701   1.548   1.591   1.656   1.732   1.728   1.757   1.880   1.926   1.879
    70.67    1.725   1.879   1.856   1.992   1.977   2.011   2.040   1.930   1.857   1.834   1.687   1.676   1.696   1.696   1.639   1.701   1.741   1.776   1.660   1.611   1.568   1.578   1.544   1.654   1.608   1.750   1.817   1.760   1.852   1.941   1.949
    65.83    1.755   1.948   2.043   1.922   1.907   1.967   1.894   1.880   1.898   1.762   1.705   1.699   1.673   1.721   1.658   1.695   1.717   1.758   1.685   1.601   1.534   1.493   1.500   1.580   1.615   1.623   1.633   1.716   1.750   1.821   1.911
    61.00    1.815   1.952   1.932   1.956   1.862   1.817   1.759   1.879   1.941   1.970   1.786   1.710   1.674   1.701   1.738   1.590   1.607   1.631   1.536   1.523   1.428   1.387   1.519   1.497   1.516   1.567   1.488   1.509   1.665   1.773   1.903
    56.17    1.846   1.828   1.918   1.813   1.815   1.875   1.758   1.871   1.986   1.921   1.837   1.843   1.739   1.726   1.624   1.590   1.506   1.482   1.439   1.316   1.366   1.387   1.420   1.552   1.561   1.498   1.541   1.523   1.644   1.781   1.723
    51.33    1.840   1.772   1.925   1.787   1.769   1.840   1.738   1.880   1.860   1.989   1.901   1.793   1.706   1.661   1.643   1.726   1.566   1.564   1.371   1.273   1.277   1.354   1.499   1.576   1.584   1.584   1.562   1.522   1.603   1.693   1.690
    46.50    1.767   1.737   1.848   1.862   1.768   1.806   1.866   1.881   1.871   1.958   1.902   1.811   1.770   1.626   1.645   1.595   1.654   1.563   1.555   1.411   1.395   1.340   1.567   1.691   1.631   1.626   1.571   1.597   1.607   1.627   1.583
    41.67    1.710   1.728   1.790   1.823   1.865   1.819   1.935   1.907   1.855   1.901   1.910   1.711   1.625   1.674   1.690   1.716   1.624   1.561   1.516   1.479   1.430   1.430   1.573   1.612   1.577   1.581   1.690   1.542   1.632   1.527   1.466
    36.83    1.823   1.706   1.815   1.794   1.688   1.750   1.881   1.909   1.939   1.961   1.778   1.805   1.824   1.809   1.777   1.689   1.721   1.505   1.532   1.471   1.514   1.415   1.487   1.569   1.549   1.531   1.529   1.553   1.479   1.506   1.501
    32.00    1.708   1.582   1.672   1.637   1.573   1.776   1.760   1.907   1.857   1.877   1.853   1.790   1.684   1.761   1.801   1.669   1.707   1.572   1.581   1.584   1.448   1.441   1.435   1.550   1.471   1.474   1.537   1.467   1.441   1.420   1.518
    27.17    1.704   1.632   1.647   1.643   1.666   1.727   1.723   1.827   1.854   1.808   1.820   1.734   1.681   1.805   1.838   1.761   1.747   1.663   1.677   1.586   1.597   1.647   1.463   1.611   1.588   1.520   1.509   1.529   1.498   1.459   1.429
    22.33    1.675   1.606   1.658   1.656   1.749   1.780   1.820   1.869   1.912   1.894   1.911   1.849   1.786   1.826   1.749   1.825   1.786   1.793   1.673   1.690   1.711   1.729   1.676   1.636   1.625   1.595   1.527   1.530   1.531   1.486   1.501
    17.50    1.624   1.607   1.630   1.627   1.699   1.769   1.684   1.841   1.988   1.919   1.985   1.871   1.821   1.823   1.802   1.741   1.771   1.660   1.668   1.703   1.661   1.752   1.761   1.753   1.563   1.497   1.412   1.466   1.497   1.446   1.467

   Height   Standard deviation at grid points for the v component:
   162.50    1.351   1.351   1.351   1.351   1.351   1.351   1.351   1.351   1.351   1.351   1.351   1.351   1.351   1.351   1.351   1.351   1.351   1.351   1.351   1.351   1.351   1.351   1.351   1.351   1.351   1.351   1.351   1.351   1.351   1.351   1.351
   157.67    1.351   1.351   1.351   1.351   1.351   1.351   1.351   1.351   1.351   1.351   1.351   1.351   1.351   1.351   1.351   1.351   1.351   1.351   1.351   1.351   1.351   1.351   1.351   1.351   1.351   1.351   1.351   1.351   1.351   1.351   1.351
   152.83    1.351   1.351   1.351   1.351   1.351   1.351   1.351   1.351   1.351   1.351   1.351   1.351   1.351   1.351   1.351   1.351   1.351   1.351   1.351   1.351   1.351   1.351   1.351   1.351   1.351   1.351   1.351   1.351   1.351   1.351   1.351
   148.00    1.351   1.351   1.351   1.351   1.351   1.351   1.351   1.351   1.351   1.351   1.351   1.351   1.351   1.351   1.351   1.351   1.351   1.351   1.351   1.351   1.351   1.351   1.351   1.351   1.351   1.351   1.351   1.351   1.351   1.351   1.351
   143.17    1.351   1.351   1.351   1.351   1.351   1.351   1.351   1.351   1.351   1.351   1.351   1.351   1.351   1.351   1.351   1.351   1.351   1.351   1.351   1.351   1.351   1.351   1.351   1.351   1.351   1.351   1.351   1.351   1.351   1.351   1.351
   138.33    1.351   1.351   1.351   1.351   1.351   1.351   1.351   1.351   1.351   1.351   1.351   1.351   1.351   1.351   1.351   1.351   1.351   1.351   1.351   1.351   1.351   1.351   1.351   1.351   1.351   1.351   1.351   1.351   1.351   1.351   1.351
   133.50    1.351   1.351   1.351   1.351   1.351   1.351   1.351   1.351   1.351   1.351   1.351   1.351   1.351   1.351   1.351   1.351   1.351   1.351   1.351   1.351   1.351   1.351   1.351   1.351   1.351   1.351   1.351   1.351   1.351   1.351   1.351
   128.67    1.351   1.351   1.351   1.351   1.351   1.351   1.351   1.351   1.351   1.351   1.351   1.351   1.351   1.351   1.351   1.351   1.351   1.351   1.351   1.351   1.351   1.351   1.351   1.351   1.351   1.351   1.351   1.351   1.351   1.351   1.351
   123.83    1.351   1.351   1.351   1.351   1.351   1.351   1.351   1.351   1.351   1.351   1.351   1.351   1.351   1.351   1.351   1.351   1.351   1.351   1.351   1.351   1.351   1.351   1.351   1.351   1.351   1.351   1.351   1.351   1.351   1.351   1.351
   119.00    1.351   1.351   1.351   1.351   1.351   1.351   1.351   1.351   1.351   1.351   1.351   1.351   1.351   1.351   1.351   1.351   1.351   1.351   1.351   1.351   1.351   1.351   1.351   1.351   1.351   1.351   1.351   1.351   1.351   1.351   1.351
   114.17    1.351   1.351   1.351   1.351   1.351   1.351   1.351   1.351   1.351   1.351   1.351   1.351   1.351   1.351   1.351   1.351   1.351   1.351   1.351   1.351   1.351   1.351   1.351   1.351   1.351   1.351   1.351   1.351   1.351   1.351   1.351
   109.33    1.351   1.351   1.351   1.351   1.351   1.351   1.351   1.351   1.351   1.351   1.351   1.351   1.351   1.351   1.351   1.351   1.351   1.351   1.351   1.351   1.351   1.351   1.351   1.351   1.351   1.351   1.351   1.351   1.351   1.351   1.351
   104.50    1.351   1.351   1.351   1.351   1.351   1.351   1.351   1.351   1.351   1.351   1.351   1.351   1.351   1.351   1.351   1.351   1.351   1.351   1.351   1.351   1.351   1.351   1.351   1.351   1.351   1.351   1.351   1.351   1.351   1.351   1.351
    99.67    1.351   1.351   1.351   1.351   1.351   1.351   1.351   1.351   1.351   1.351   1.351   1.351   1.351   1.351   1.351   1.351   1.351   1.351   1.351   1.351   1.351   1.351   1.351   1.351   1.351   1.351   1.351   1.351   1.351   1.351   1.351
    94.83    1.351   1.351   1.351   1.351   1.351   1.351   1.351   1.351   1.351   1.351   1.351   1.351   1.351   1.351   1.351   1.351   1.351   1.351   1.351   1.351   1.351   1.351   1.351   1.351   1.351   1.351   1.351   1.351   1.351   1.351   1.351
    90.00    1.351   1.351   1.351   1.351   1.351   1.351   1.351   1.351   1.351   1.351   1.351   1.351   1.351   1.351   1.351   1.351   1.351   1.351   1.351   1.351   1.351   1.351   1.351   1.351   1.351   1.351   1.351   1.351   1.351   1.351   1.351
    85.17    1.351   1.351   1.351   1.351   1.351   1.351   1.351   1.351   1.351   1.351   1.351   1.351   1.351   1.351   1.351   1.351   1.351   1.351   1.351   1.351   1.351   1.351   1.351   1.351   1.351   1.351   1.351   1.351   1.351   1.351   1.351
    80.33    1.351   1.351   1.351   1.351   1.351   1.351   1.351   1.351   1.351   1.351   1.351   1.351   1.351   1.351   1.351   1.351   1.351   1.351   1.351   1.351   1.351   1.351   1.351   1.351   1.351   1.351   1.351   1.351   1.351   1.351   1.351
    75.50    1.351   1.351   1.351   1.351   1.351   1.351   1.351   1.351   1.351   1.351   1.351   1.351   1.351   1.351   1.351   1.351   1.351   1.351   1.351   1.351   1.351   1.351   1.351   1.351   1.351   1.351   1.351   1.351   1.351   1.351   1.351
    70.67    1.351   1.351   1.351   1.351   1.351   1.351   1.351   1.351   1.351   1.351   1.351   1.351   1.351   1.351   1.351   1.351   1.351   1.351   1.351   1.351   1.351   1.351   1.351   1.351   1.351   1.351   1.351   1.351   1.351   1.351   1.351
    65.83    1.351   1.351   1.351   1.351   1.351   1.351   1.351   1.351   1.351   1.351   1.351   1.351   1.351   1.351   1.351   1.351   1.351   1.351   1.351   1.351   1.351   1.351   1.351   1.351   1.351   1.351   1.351   1.351   1.351   1.351   1.351
    61.00    1.351   1.351   1.351   1.351   1.351   1.351   1.351   1.351   1.351   1.351   1.351   1.351   1.351   1.351   1.351   1.351   1.351   1.351   1.351   1.351   1.351   1.351   1.351   1.351   1.351   1.351   1.351   1.351   1.351   1.351   1.351
    56.17    1.351   1.351   1.351   1.351   1.351   1.351   1.351   1.351   1.351   1.351   1.351   1.351   1.351   1.351   1.351   1.351   1.351   1.351   1.351   1.351   1.351   1.351   1.351   1.351   1.351   1.351   1.351   1.351   1.351   1.351   1.351
    51.33    1.351   1.351   1.351   1.351   1.351   1.351   1.351   1.351   1.351   1.351   1.351   1.351   1.351   1.351   1.351   1.351   1.351   1.351   1.351   1.351   1.351   1.351   1.351   1.351   1.351   1.351   1.351   1.351   1.351   1.351   1.351
    46.50    1.351   1.351   1.351   1.351   1.351   1.351   1.351   1.351   1.351   1.351   1.351   1.351   1.351   1.351   1.351   1.351   1.351   1.351   1.351   1.351   1.351   1.351   1.351   1.351   1.351   1.351   1.351   1.351   1.351   1.351   1.351
    41.67    1.351   1.351   1.351   1.351   1.351   1.351   1.351   1.351   1.351   1.351   1.351   1.351   1.351   1.351   1.351   1.351   1.351   1.351   1.351   1.351   1.351   1.351   1.351   1.351   1.351   1.351   1.351   1.351   1.351   1.351   1.351
    36.83    1.351   1.351   1.351   1.351   1.351   1.351   1.351   1.351   1.351   1.351   1.351   1.351   1.351   1.351   1.351   1.351   1.351   1.351   1.351   1.351   1.351   1.351   1.351   1.351   1.351   1.351   1.351   1.351   1.351   1.351   1.351
    32.00    1.351   1.351   1.351   1.351   1.351   1.351   1.351   1.351   1.351   1.351   1.351   1.351   1.351   1.351   1.351   1.351   1.351   1.351   1.351   1.351   1.351   1.351   1.351   1.351   1.351   1.351   1.351   1.351   1.351   1.351   1.351
    27.17    1.351   1.351   1.351   1.351   1.351   1.351   1.351   1.351   1.351   1.351   1.351   1.351   1.351   1.351   1.351   1.351   1.351   1.351   1.351   1.351   1.351   1.351   1.351   1.351   1.351   1.351   1.351   1.351   1.351   1.351   1.351
    22.33    1.351   1.351   1.351   1.351   1.351   1.351   1.351   1.351   1.351   1.351   1.351   1.351   1.351   1.351   1.351   1.351   1.351   1.351   1.351   1.351   1.351   1.351   1.351   1.351   1.351   1.351   1.351   1.351   1.351   1.351   1.351
    17.50    1.351   1.351   1.351   1.351   1.351   1.351   1.351   1.351   1.351   1.351   1.351   1.351   1.351   1.351   1.351   1.351   1.351   1.351   1.351   1.351   1.351   1.351   1.351   1.351   1.351   1.351   1.351   1.351   1.351   1.351   1.351

   Height   Standard deviation at grid points for the w component:
   162.50    0.852   0.852   0.852   0.852   0.852   0.852   0.852   0.852   0.852   0.852   0.852   0.852   0.852   0.852   0.852   0.852   0.852   0.852   0.852   0.852   0.852   0.852   0.852   0.852   0.852   0.852   0.852   0.852   0.852   0.852   0.852
   157.67    0.852   0.852   0.852   0.852   0.852   0.852   0.852   0.852   0.852   0.852   0.852   0.852   0.852   0.852   0.852   0.852   0.852   0.852   0.852   0.852   0.852   0.852   0.852   0.852   0.852   0.852   0.852   0.852   0.852   0.852   0.852
   152.83    0.852   0.852   0.852   0.852   0.852   0.852   0.852   0.852   0.852   0.852   0.852   0.852   0.852   0.852   0.852   0.852   0.852   0.852   0.852   0.852   0.852   0.852   0.852   0.852   0.852   0.852   0.852   0.852   0.852   0.852   0.852
   148.00    0.852   0.852   0.852   0.852   0.852   0.852   0.852   0.852   0.852   0.852   0.852   0.852   0.852   0.852   0.852   0.852   0.852   0.852   0.852   0.852   0.852   0.852   0.852   0.852   0.852   0.852   0.852   0.852   0.852   0.852   0.852
   143.17    0.852   0.852   0.852   0.852   0.852   0.852   0.852   0.852   0.852   0.852   0.852   0.852   0.852   0.852   0.852   0.852   0.852   0.852   0.852   0.852   0.852   0.852   0.852   0.852   0.852   0.852   0.852   0.852   0.852   0.852   0.852
   138.33    0.852   0.852   0.852   0.852   0.852   0.852   0.852   0.852   0.852   0.852   0.852   0.852   0.852   0.852   0.852   0.852   0.852   0.852   0.852   0.852   0.852   0.852   0.852   0.852   0.852   0.852   0.852   0.852   0.852   0.852   0.852
   133.50    0.852   0.852   0.852   0.852   0.852   0.852   0.852   0.852   0.852   0.852   0.852   0.852   0.852   0.852   0.852   0.852   0.852   0.852   0.852   0.852   0.852   0.852   0.852   0.852   0.852   0.852   0.852   0.852   0.852   0.852   0.852
   128.67    0.852   0.852   0.852   0.852   0.852   0.852   0.852   0.852   0.852   0.852   0.852   0.852   0.852   0.852   0.852   0.852   0.852   0.852   0.852   0.852   0.852   0.852   0.852   0.852   0.852   0.852   0.852   0.852   0.852   0.852   0.852
   123.83    0.852   0.852   0.852   0.852   0.852   0.852   0.852   0.852   0.852   0.852   0.852   0.852   0.852   0.852   0.852   0.852   0.852   0.852   0.852   0.852   0.852   0.852   0.852   0.852   0.852   0.852   0.852   0.852   0.852   0.852   0.852
   119.00    0.852   0.852   0.852   0.852   0.852   0.852   0.852   0.852   0.852   0.852   0.852   0.852   0.852   0.852   0.852   0.852   0.852   0.852   0.852   0.852   0.852   0.852   0.852   0.852   0.852   0.852   0.852   0.852   0.852   0.852   0.852
   114.17    0.852   0.852   0.852   0.852   0.852   0.852   0.852   0.852   0.852   0.852   0.852   0.852   0.852   0.852   0.852   0.852   0.852   0.852   0.852   0.852   0.852   0.852   0.852   0.852   0.852   0.852   0.852   0.852   0.852   0.852   0.852
   109.33    0.852   0.852   0.852   0.852   0.852   0.852   0.852   0.852   0.852   0.852   0.852   0.852   0.852   0.852   0.852   0.852   0.852   0.852   0.852   0.852   0.852   0.852   0.852   0.852   0.852   0.852   0.852   0.852   0.852   0.852   0.852
   104.50    0.852   0.852   0.852   0.852   0.852   0.852   0.852   0.852   0.852   0.852   0.852   0.852   0.852   0.852   0.852   0.852   0.852   0.852   0.852   0.852   0.852   0.852   0.852   0.852   0.852   0.852   0.852   0.852   0.852   0.852   0.852
    99.67    0.852   0.852   0.852   0.852   0.852   0.852   0.852   0.852   0.852   0.852   0.852   0.852   0.852   0.852   0.852   0.852   0.852   0.852   0.852   0.852   0.852   0.852   0.852   0.852   0.852   0.852   0.852   0.852   0.852   0.852   0.852
    94.83    0.852   0.852   0.852   0.852   0.852   0.852   0.852   0.852   0.852   0.852   0.852   0.852   0.852   0.852   0.852   0.852   0.852   0.852   0.852   0.852   0.852   0.852   0.852   0.852   0.852   0.852   0.852   0.852   0.852   0.852   0.852
    90.00    0.852   0.852   0.852   0.852   0.852   0.852   0.852   0.852   0.852   0.852   0.852   0.852   0.852   0.852   0.852   0.852   0.852   0.852   0.852   0.852   0.852   0.852   0.852   0.852   0.852   0.852   0.852   0.852   0.852   0.852   0.852
    85.17    0.852   0.852   0.852   0.852   0.852   0.852   0.852   0.852   0.852   0.852   0.852   0.852   0.852   0.852   0.852   0.852   0.852   0.852   0.852   0.852   0.852   0.852   0.852   0.852   0.852   0.852   0.852   0.852   0.852   0.852   0.852
    80.33    0.852   0.852   0.852   0.852   0.852   0.852   0.852   0.852   0.852   0.852   0.852   0.852   0.852   0.852   0.852   0.852   0.852   0.852   0.852   0.852   0.852   0.852   0.852   0.852   0.852   0.852   0.852   0.852   0.852   0.852   0.852
    75.50    0.852   0.852   0.852   0.852   0.852   0.852   0.852   0.852   0.852   0.852   0.852   0.852   0.852   0.852   0.852   0.852   0.852   0.852   0.852   0.852   0.852   0.852   0.852   0.852   0.852   0.852   0.852   0.852   0.852   0.852   0.852
    70.67    0.852   0.852   0.852   0.852   0.852   0.852   0.852   0.852   0.852   0.852   0.852   0.852   0.852   0.852   0.852   0.852   0.852   0.852   0.852   0.852   0.852   0.852   0.852   0.852   0.852   0.852   0.852   0.852   0.852   0.852   0.852
    65.83    0.852   0.852   0.852   0.852   0.852   0.852   0.852   0.852   0.852   0.852   0.852   0.852   0.852   0.852   0.852   0.852   0.852   0.852   0.852   0.852   0.852   0.852   0.852   0.852   0.852   0.852   0.852   0.852   0.852   0.852   0.852
    61.00    0.852   0.852   0.852   0.852   0.852   0.852   0.852   0.852   0.852   0.852   0.852   0.852   0.852   0.852   0.852   0.852   0.852   0.852   0.852   0.852   0.852   0.852   0.852   0.852   0.852   0.852   0.852   0.852   0.852   0.852   0.852
    56.17    0.852   0.852   0.852   0.852   0.852   0.852   0.852   0.852   0.852   0.852   0.852   0.852   0.852   0.852   0.852   0.852   0.852   0.852   0.852   0.852   0.852   0.852   0.852   0.852   0.852   0.852   0.852   0.852   0.852   0.852   0.852
    51.33    0.852   0.852   0.852   0.852   0.852   0.852   0.852   0.852   0.852   0.852   0.852   0.852   0.852   0.852   0.852   0.852   0.852   0.852   0.852   0.852   0.852   0.852   0.852   0.852   0.852   0.852   0.852   0.852   0.852   0.852   0.852
    46.50    0.852   0.852   0.852   0.852   0.852   0.852   0.852   0.852   0.852   0.852   0.852   0.852   0.852   0.852   0.852   0.852   0.852   0.852   0.852   0.852   0.852   0.852   0.852   0.852   0.852   0.852   0.852   0.852   0.852   0.852   0.852
    41.67    0.852   0.852   0.852   0.852   0.852   0.852   0.852   0.852   0.852   0.852   0.852   0.852   0.852   0.852   0.852   0.852   0.852   0.852   0.852   0.852   0.852   0.852   0.852   0.852   0.852   0.852   0.852   0.852   0.852   0.852   0.852
    36.83    0.852   0.852   0.852   0.852   0.852   0.852   0.852   0.852   0.852   0.852   0.852   0.852   0.852   0.852   0.852   0.852   0.852   0.852   0.852   0.852   0.852   0.852   0.852   0.852   0.852   0.852   0.852   0.852   0.852   0.852   0.852
    32.00    0.852   0.852   0.852   0.852   0.852   0.852   0.852   0.852   0.852   0.852   0.852   0.852   0.852   0.852   0.852   0.852   0.852   0.852   0.852   0.852   0.852   0.852   0.852   0.852   0.852   0.852   0.852   0.852   0.852   0.852   0.852
    27.17    0.852   0.852   0.852   0.852   0.852   0.852   0.852   0.852   0.852   0.852   0.852   0.852   0.852   0.852   0.852   0.852   0.852   0.852   0.852   0.852   0.852   0.852   0.852   0.852   0.852   0.852   0.852   0.852   0.852   0.852   0.852
    22.33    0.852   0.852   0.852   0.852   0.852   0.852   0.852   0.852   0.852   0.852   0.852   0.852   0.852   0.852   0.852   0.852   0.852   0.852   0.852   0.852   0.852   0.852   0.852   0.852   0.852   0.852   0.852   0.852   0.852   0.852   0.852
    17.50    0.852   0.852   0.852   0.852   0.852   0.852   0.852   0.852   0.852   0.852   0.852   0.852   0.852   0.852   0.852   0.852   0.852   0.852   0.852   0.852   0.852   0.852   0.852   0.852   0.852   0.852   0.852   0.852   0.852   0.852   0.852

   Mean standard deviation across all grid points:
      u component:    1.824 m/s
      v component:    1.351 m/s
      w component:    0.852 m/s


U-component (X) statistics from the interpolated hub point:

   Mean =   7.0000 m/s
   TI   =  26.8175 %


Processing complete.  631.89 CPU seconds used.
